src/autotest/BU0001.glm
// PG&E BU001 Taxonomy Feeder Model
module powerflow
{
	solver_method NR;
	default_maximum_voltage_error 1e-4;
}

//*********************************************
// Conductor Objects
//*********************************************
// OHCond_715_AAC_C
object overhead_line_conductor {
	name OHCond_715_AAC_C;
	resistance 0.1324968876;
	geometric_mean_radius 0.0311920128;
	diameter 0.972998054;
}

// OHCond_715_AAC_I
object overhead_line_conductor {
	name OHCond_715_AAC_I;
	resistance 0.1324968876;
	geometric_mean_radius 0.0311920128;
	diameter 0.972998054;
}

// OHCond_1/0_AAC_C
object overhead_line_conductor {
	name OHCond_1/0_AAC_C;
	resistance 0.8820750323;
	geometric_mean_radius 0.0110971584;
	diameter 0.367999264;
}

// OHCond_4/0_CU_C
object overhead_line_conductor {
	name OHCond_4/0_CU_C;
	resistance 0.2807826175;
	geometric_mean_radius 0.015765976;
	diameter 0.521998956;
}

// OHCond_4_CU_C
object overhead_line_conductor {
	name OHCond_4_CU_C;
	resistance 1.4181103321;
	geometric_mean_radius 0.006998208;
	diameter 0.231999536;
}

// OHCond_397_AAC_C
object overhead_line_conductor {
	name OHCond_397_AAC_C;
	resistance 0.2354936969;
	geometric_mean_radius 0.0227941632;
	diameter 0.722998554;
}

// OHCond_1/0_CU_C
object overhead_line_conductor {
	name OHCond_1/0_CU_C;
	resistance 0.5615250025;
	geometric_mean_radius 0.0111371416;
	diameter 0.367999264;
}

// OHCond_4/0_AAC_C
object overhead_line_conductor {
	name OHCond_4/0_AAC_C;
	resistance 0.4406874934;
	geometric_mean_radius 0.015765976;
	diameter 0.521998956;
}

// OHCond_6_CU_I
object overhead_line_conductor {
	name OHCond_6_CU_I;
	resistance 2.2113584416;
	geometric_mean_radius 0.00525866;
	diameter 0.161999676;
}

// OHCond_DEFAULT
object overhead_line_conductor {
	name OHCond_DEFAULT;
	resistance 0.27792611;
	geometric_mean_radius 0.01667552;
	diameter 0.52799107;
}

// OHCond_4/0_CU_I
object overhead_line_conductor {
	name OHCond_4/0_CU_I;
	resistance 0.2807826175;
	geometric_mean_radius 0.015765976;
	diameter 0.521998956;
}

// OHCond_1/0_CU_I
object overhead_line_conductor {
	name OHCond_1/0_CU_I;
	resistance 0.5615250025;
	geometric_mean_radius 0.0111371416;
	diameter 0.367999264;
}

// OHCond_4_ACSR_C
object overhead_line_conductor {
	name OHCond_4_ACSR_C;
	resistance 2.1715395317;
	geometric_mean_radius 0.0524265688;
	diameter 0.2499995;
}

// OHCond_4_CU_I
object overhead_line_conductor {
	name OHCond_4_CU_I;
	resistance 1.4181103321;
	geometric_mean_radius 0.006998208;
	diameter 0.231999536;
}

// OHCond_397_AAC_I
object overhead_line_conductor {
	name OHCond_397_AAC_I;
	resistance 0.2354936969;
	geometric_mean_radius 0.0227941632;
	diameter 0.722998554;
}

// OHCond_2_CU_C
object overhead_line_conductor {
	name OHCond_2_CU_C;
	resistance 0.8920559109;
	geometric_mean_radius 0.0882773952;
	diameter 0.291999416;
}

// OHCond_6_CU_C
object overhead_line_conductor {
	name OHCond_6_CU_C;
	resistance 2.2113584416;
	geometric_mean_radius 0.00525866;
	diameter 0.161999676;
}

// UGCable_700_AL_XLP-CONC-PVC_22KV_3P
object underground_line_conductor {
	name UGCable_700_AL_XLP-CONC-PVC_22KV_3P;
	outer_diameter 0.669290518897;
	conductor_gmr 0.01667552;
	conductor_diameter 0.52799107;
	conductor_resistance 0.27792611;
	neutral_gmr 0.01667552;
	neutral_resistance 0.27792611;
	neutral_diameter 0.52799107;
	neutral_strands 2;
}

// UGCable_1/0_AL_XLP-CONC-PVC_22KV_3P&N
object underground_line_conductor {
	name UGCable_1/0_AL_XLP-CONC-PVC_22KV_3P&N;
	outer_diameter 0.669290518897;
	conductor_gmr 0.01667552;
	conductor_diameter 0.52799107;
	conductor_resistance 0.27792611;
	neutral_gmr 0.01667552;
	neutral_resistance 0.27792611;
	neutral_diameter 0.52799107;
	neutral_strands 2;
}

// UGCable_250_CU_1C_P&L_5KV_3P&N
object underground_line_conductor {
	name UGCable_250_CU_1C_P&L_5KV_3P&N;
	outer_diameter 0.669290518897;
	conductor_gmr 0.01667552;
	conductor_diameter 0.52799107;
	conductor_resistance 0.27792611;
	neutral_gmr 0.01667552;
	neutral_resistance 0.27792611;
	neutral_diameter 0.52799107;
	neutral_strands 2;
}

// UGCable_4/0_AL_XLP-CONC-CIC_22KV_3P&N
object underground_line_conductor {
	name UGCable_4/0_AL_XLP-CONC-CIC_22KV_3P&N;
	outer_diameter 0.669290518897;
	conductor_gmr 0.01667552;
	conductor_diameter 0.52799107;
	conductor_resistance 0.27792611;
	neutral_gmr 0.01667552;
	neutral_resistance 0.27792611;
	neutral_diameter 0.52799107;
	neutral_strands 2;
}

// UGCable_500_CU_EPR-CONC-ENCAP-PE_3P
object underground_line_conductor {
	name UGCable_500_CU_EPR-CONC-ENCAP-PE_3P;
	outer_diameter 0.669290518897;
	conductor_gmr 0.01667552;
	conductor_diameter 0.52799107;
	conductor_resistance 0.27792611;
	neutral_gmr 0.01667552;
	neutral_resistance 0.27792611;
	neutral_diameter 0.52799107;
	neutral_strands 2;
}

// UGCable_2_AL_XLP-CONC-PVC_22KV_1P
object underground_line_conductor {
	name UGCable_2_AL_XLP-CONC-PVC_22KV_1P;
	outer_diameter 0.669290518897;
	conductor_gmr 0.01667552;
	conductor_diameter 0.52799107;
	conductor_resistance 0.27792611;
	neutral_gmr 0.01667552;
	neutral_resistance 0.27792611;
	neutral_diameter 0.52799107;
	neutral_strands 2;
}

// UGCable_2_AL_PEC_22KV_3P
object underground_line_conductor {
	name UGCable_2_AL_PEC_22KV_3P;
	outer_diameter 0.669290518897;
	conductor_gmr 0.01667552;
	conductor_diameter 0.52799107;
	conductor_resistance 0.27792611;
	neutral_gmr 0.01667552;
	neutral_resistance 0.27792611;
	neutral_diameter 0.52799107;
	neutral_strands 2;
}

// UGCable_DEFAULT
object underground_line_conductor {
	name UGCable_DEFAULT;
	outer_diameter 4.3307121811;
	conductor_gmr 0.01667552;
	conductor_diameter 0.52799107;
	conductor_resistance 0.27792611;
	neutral_gmr 0.01667552;
	neutral_resistance 0.27792611;
	neutral_diameter 0.52799107;
	neutral_strands 2;
}

// UGCable_1/0_AL_EPR-CONC-ENCAP-PE_3P
object underground_line_conductor {
	name UGCable_1/0_AL_EPR-CONC-ENCAP-PE_3P;
	outer_diameter 0.669290518897;
	conductor_gmr 0.01667552;
	conductor_diameter 0.52799107;
	conductor_resistance 0.27792611;
	neutral_gmr 0.01667552;
	neutral_resistance 0.27792611;
	neutral_diameter 0.52799107;
	neutral_strands 2;
}

// UGCable_4_CU_1C_P&L_5KV_1P&N
object underground_line_conductor {
	name UGCable_4_CU_1C_P&L_5KV_1P&N;
	outer_diameter 0.669290518897;
	conductor_gmr 0.01667552;
	conductor_diameter 0.52799107;
	conductor_resistance 0.27792611;
	neutral_gmr 0.01667552;
	neutral_resistance 0.27792611;
	neutral_diameter 0.52799107;
	neutral_strands 2;
}

// UGCable_1/0_AL_EPR-CONC-ENCAP-PE_1P
object underground_line_conductor {
	name UGCable_1/0_AL_EPR-CONC-ENCAP-PE_1P;
	outer_diameter 0.669290518897;
	conductor_gmr 0.01667552;
	conductor_diameter 0.52799107;
	conductor_resistance 0.27792611;
	neutral_gmr 0.01667552;
	neutral_resistance 0.27792611;
	neutral_diameter 0.52799107;
	neutral_strands 2;
}

// UGCable_2_AL_XLP-CONC-PVC_22KV_3P
object underground_line_conductor {
	name UGCable_2_AL_XLP-CONC-PVC_22KV_3P;
	outer_diameter 0.669290518897;
	conductor_gmr 0.01667552;
	conductor_diameter 0.52799107;
	conductor_resistance 0.27792611;
	neutral_gmr 0.01667552;
	neutral_resistance 0.27792611;
	neutral_diameter 0.52799107;
	neutral_strands 2;
}

// UGCable_4/0_AL_XLP-CONC-PVC_22KV_3P
object underground_line_conductor {
	name UGCable_4/0_AL_XLP-CONC-PVC_22KV_3P;
	outer_diameter 0.669290518897;
	conductor_gmr 0.01667552;
	conductor_diameter 0.52799107;
	conductor_resistance 0.27792611;
	neutral_gmr 0.01667552;
	neutral_resistance 0.27792611;
	neutral_diameter 0.52799107;
	neutral_strands 2;
}

// UGCable_1000_AL_XLP-CONC-PVC_22KV_3P
object underground_line_conductor {
	name UGCable_1000_AL_XLP-CONC-PVC_22KV_3P;
	outer_diameter 0.669290518897;
	conductor_gmr 0.01667552;
	conductor_diameter 0.52799107;
	conductor_resistance 0.27792611;
	neutral_gmr 0.01667552;
	neutral_resistance 0.27792611;
	neutral_diameter 0.52799107;
	neutral_strands 2;
}

// UGCable_2_AL_PEC_15KV_3P
object underground_line_conductor {
	name UGCable_2_AL_PEC_15KV_3P;
	outer_diameter 0.669290518897;
	conductor_gmr 0.01667552;
	conductor_diameter 0.52799107;
	conductor_resistance 0.27792611;
	neutral_gmr 0.01667552;
	neutral_resistance 0.27792611;
	neutral_diameter 0.52799107;
	neutral_strands 2;
}

// UGCable_500_CU_XLP-PVC_15KV_3P&N
object underground_line_conductor {
	name UGCable_500_CU_XLP-PVC_15KV_3P&N;
	outer_diameter 0.669290518897;
	conductor_gmr 0.01667552;
	conductor_diameter 0.52799107;
	conductor_resistance 0.27792611;
	neutral_gmr 0.01667552;
	neutral_resistance 0.27792611;
	neutral_diameter 0.52799107;
	neutral_strands 2;
}

// UGCable_2_CU_RO&N_5KV_1P&N
object underground_line_conductor {
	name UGCable_2_CU_RO&N_5KV_1P&N;
	outer_diameter 0.669290518897;
	conductor_gmr 0.01667552;
	conductor_diameter 0.52799107;
	conductor_resistance 0.27792611;
	neutral_gmr 0.01667552;
	neutral_resistance 0.27792611;
	neutral_diameter 0.52799107;
	neutral_strands 2;
}

//*********************************************
// Line spacing objects
//*********************************************
// OHSpacing_HORIZONTAL_2P_88
object line_spacing {
	name OHSpacing_HORIZONTAL_2P_88;
	distance_AB 7.3332408792;
	distance_BC 7.3332408792;
	distance_AC 7.3332408792;
	distance_AN 9.9998784;
	distance_BN 9.9998784;
	distance_CN 9.9998784;
}

// UGSpacing_1000_AL_XLP-CONC-PVC_22KV_3P
object line_spacing {
	name UGSpacing_1000_AL_XLP-CONC-PVC_22KV_3P;
	distance_AB 0.147636;
	distance_BC 0.147636;
	distance_AC 0.295272;
}

// UGSpacing_4/0_AL_XLP-CONC-PVC_22KV_3P
object line_spacing {
	name UGSpacing_4/0_AL_XLP-CONC-PVC_22KV_3P;
	distance_AB 0.147636;
	distance_BC 0.147636;
	distance_AC 0.295272;
}

// OHSpacing_HORIZONTAL_1P_56
object line_spacing {
	name OHSpacing_HORIZONTAL_1P_56;
	distance_AB 4.66660992;
	distance_BC 4.66660992;
	distance_AC 4.66660992;
	distance_AN 6.99991488;
	distance_BN 6.99991488;
	distance_CN 6.99991488;
}

// OHSpacing_HORIZONTAL_1P_52
object line_spacing {
	name OHSpacing_HORIZONTAL_1P_52;
	distance_AB 4.3332773592;
	distance_BC 4.3332773592;
	distance_AC 4.3332773592;
	distance_AN 6.6665888808;
	distance_BN 6.6665888808;
	distance_CN 6.6665888808;
}

// UGSpacing_2_CU_RO&N_5KV_1P&N
object line_spacing {
	name UGSpacing_2_CU_RO&N_5KV_1P&N;
	distance_AB 0.0;
	distance_BC 0.0;
	distance_AC 0.0;
}

// UGSpacing_1/0_AL_EPR-CONC-ENCAP-PE_3P
object line_spacing {
	name UGSpacing_1/0_AL_EPR-CONC-ENCAP-PE_3P;
	distance_AB 0.147636;
	distance_BC 0.147636;
	distance_AC 0.295272;
}

// UGSpacing_2_AL_PEC_22KV_3P
object line_spacing {
	name UGSpacing_2_AL_PEC_22KV_3P;
	distance_AB 0.147636;
	distance_BC 0.147636;
	distance_AC 0.295272;
}

// UGSpacing_1/0_AL_XLP-CONC-PVC_22KV_3P&N
object line_spacing {
	name UGSpacing_1/0_AL_XLP-CONC-PVC_22KV_3P&N;
	distance_AB 0.147636;
	distance_BC 0.147636;
	distance_AC 0.295272;
}

// UGSpacing_1/0_AL_EPR-CONC-ENCAP-PE_1P
object line_spacing {
	name UGSpacing_1/0_AL_EPR-CONC-ENCAP-PE_1P;
	distance_AB 0.0;
	distance_BC 0.0;
	distance_AC 0.0;
}

// OHSpacing_HORIZONTAL_3P_88
object line_spacing {
	name OHSpacing_HORIZONTAL_3P_88;
	distance_AB 7.3332408792;
	distance_BC 7.3332408792;
	distance_AC 7.3332408792;
	distance_AN 9.9998784;
	distance_BN 9.9998784;
	distance_CN 9.9998784;
}

// OHSpacing_HORIZONTAL_3P_45
object line_spacing {
	name OHSpacing_HORIZONTAL_3P_45;
	distance_AB 3.7499544;
	distance_BC 3.7499544;
	distance_AC 3.7499544;
	distance_AN 3.7499544;
	distance_BN 3.7499544;
	distance_CN 3.7499544;
}

// UGSpacing_DEFAULT
object line_spacing {
	name UGSpacing_DEFAULT;
	distance_AB 0.0;
	distance_BC 0.0;
	distance_AC 0.0;
}

// UGSpacing_500_CU_EPR-CONC-ENCAP-PE_3P
object line_spacing {
	name UGSpacing_500_CU_EPR-CONC-ENCAP-PE_3P;
	distance_AB 0.147636;
	distance_BC 0.147636;
	distance_AC 0.295272;
}

// UGSpacing_4_CU_1C_P&L_5KV_1P&N
object line_spacing {
	name UGSpacing_4_CU_1C_P&L_5KV_1P&N;
	distance_AB 0.0;
	distance_BC 0.0;
	distance_AC 0.0;
}

// OHSpacing_TRIANGULAR_3P_45
object line_spacing {
	name OHSpacing_TRIANGULAR_3P_45;
	distance_AB 3.7499544;
	distance_BC 3.7499544;
	distance_AC 3.7499544;
	distance_AN 4.9999392;
	distance_BN 4.9999392;
	distance_CN 4.9999392;
}

// UGSpacing_2_AL_PEC_15KV_3P
object line_spacing {
	name UGSpacing_2_AL_PEC_15KV_3P;
	distance_AB 0.147636;
	distance_BC 0.147636;
	distance_AC 0.295272;
}

// OHSpacing_HORIZONTAL_3P_39
object line_spacing {
	name OHSpacing_HORIZONTAL_3P_39;
	distance_AB 3.24996048;
	distance_BC 3.24996048;
	distance_AC 3.24996048;
	distance_AN 5.99992704;
	distance_BN 5.99992704;
	distance_CN 5.99992704;
}

// OHSpacing_HORIZONTAL_3P_52
object line_spacing {
	name OHSpacing_HORIZONTAL_3P_52;
	distance_AB 4.3332773592;
	distance_BC 4.3332773592;
	distance_AC 4.3332773592;
	distance_AN 6.6665888808;
	distance_BN 6.6665888808;
	distance_CN 6.6665888808;
}

// UGSpacing_250_CU_1C_P&L_5KV_3P&N
object line_spacing {
	name UGSpacing_250_CU_1C_P&L_5KV_3P&N;
	distance_AB 0.147636;
	distance_BC 0.147636;
	distance_AC 0.295272;
}

// UGSpacing_2_AL_XLP-CONC-PVC_22KV_1P
object line_spacing {
	name UGSpacing_2_AL_XLP-CONC-PVC_22KV_1P;
	distance_AB 0.0;
	distance_BC 0.0;
	distance_AC 0.0;
}

// UGSpacing_2_AL_XLP-CONC-PVC_22KV_3P
object line_spacing {
	name UGSpacing_2_AL_XLP-CONC-PVC_22KV_3P;
	distance_AB 0.147636;
	distance_BC 0.147636;
	distance_AC 0.295272;
}

// OHSpacing_HORIZONTAL_1P_45
object line_spacing {
	name OHSpacing_HORIZONTAL_1P_45;
	distance_AB 3.7499544;
	distance_BC 3.7499544;
	distance_AC 3.7499544;
	distance_AN 5.099937984;
	distance_BN 5.099937984;
	distance_CN 5.099937984;
}

// UGSpacing_4/0_AL_XLP-CONC-CIC_22KV_3P&N
object line_spacing {
	name UGSpacing_4/0_AL_XLP-CONC-CIC_22KV_3P&N;
	distance_AB 0.147636;
	distance_BC 0.147636;
	distance_AC 0.295272;
}

// UGSpacing_500_CU_XLP-PVC_15KV_3P&N
object line_spacing {
	name UGSpacing_500_CU_XLP-PVC_15KV_3P&N;
	distance_AB 0.147636;
	distance_BC 0.147636;
	distance_AC 0.295272;
}

// OHSpacing_HORIZONTAL_1P_88
object line_spacing {
	name OHSpacing_HORIZONTAL_1P_88;
	distance_AB 7.3332408792;
	distance_BC 7.3332408792;
	distance_AC 7.3332408792;
	distance_AN 7.3332408792;
	distance_BN 7.3332408792;
	distance_CN 7.3332408792;
}

// UGSpacing_700_AL_XLP-CONC-PVC_22KV_3P
object line_spacing {
	name UGSpacing_700_AL_XLP-CONC-PVC_22KV_3P;
	distance_AB 0.147636;
	distance_BC 0.147636;
	distance_AC 0.295272;
}

//*********************************************
// Line Config objects
//*********************************************
// L_800046791_LineConfig
object line_configuration {
	name L_800046791_LineConfig;
	conductor_C OHCond_6_CU_C;
	conductor_N OHCond_6_CU_C;
	spacing OHSpacing_HORIZONTAL_1P_45;
}

// L_800003393_LineConfig
object line_configuration {
	name L_800003393_LineConfig;
	conductor_A OHCond_6_CU_C;
	conductor_N OHCond_6_CU_C;
	spacing OHSpacing_HORIZONTAL_1P_88;
}

// L_800003434_LineConfig
object line_configuration {
	name L_800003434_LineConfig;
	conductor_A OHCond_4/0_CU_C;
	conductor_B OHCond_4/0_CU_C;
	conductor_C OHCond_4/0_CU_C;
	conductor_N OHCond_1/0_CU_C;
	spacing OHSpacing_HORIZONTAL_3P_52;
}

// L_800003405_LineConfig
object line_configuration {
	name L_800003405_LineConfig;
	conductor_A OHCond_4/0_CU_C;
	conductor_B OHCond_4/0_CU_C;
	conductor_C OHCond_4/0_CU_C;
	conductor_N OHCond_1/0_CU_C;
	spacing OHSpacing_HORIZONTAL_3P_45;
}

// L_800046795_LineConfig
object line_configuration {
	name L_800046795_LineConfig;
	conductor_A OHCond_4/0_AAC_C;
	conductor_B OHCond_4/0_AAC_C;
	conductor_C OHCond_4/0_AAC_C;
	conductor_N OHCond_4/0_AAC_C;
	spacing OHSpacing_HORIZONTAL_3P_88;
}

// L_800060820_LineConfig
object line_configuration {
	name L_800060820_LineConfig;
	conductor_A OHCond_6_CU_C;
	conductor_N OHCond_6_CU_C;
	spacing OHSpacing_HORIZONTAL_1P_88;
}

// L_800050040_LineConfig
object line_configuration {
	name L_800050040_LineConfig;
	conductor_A OHCond_6_CU_C;
	conductor_B OHCond_6_CU_C;
	conductor_C OHCond_6_CU_C;
	conductor_N OHCond_6_CU_C;
	spacing OHSpacing_HORIZONTAL_3P_45;
}

// L_800048288_LineConfig
object line_configuration {
	name L_800048288_LineConfig;
	conductor_C OHCond_6_CU_C;
	conductor_N OHCond_6_CU_C;
	spacing OHSpacing_HORIZONTAL_1P_45;
}

// L_800003411_LineConfig
object line_configuration {
	name L_800003411_LineConfig;
	conductor_A OHCond_4/0_CU_C;
	conductor_B OHCond_4/0_CU_C;
	conductor_C OHCond_4/0_CU_C;
	conductor_N OHCond_1/0_CU_C;
	spacing OHSpacing_HORIZONTAL_3P_45;
}

// L_800045239_LineConfig
object line_configuration {
	name L_800045239_LineConfig;
	conductor_A OHCond_6_CU_C;
	conductor_B OHCond_6_CU_C;
	conductor_C OHCond_6_CU_C;
	conductor_N OHCond_6_CU_C;
	spacing OHSpacing_HORIZONTAL_3P_52;
}

// L_800045240_LineConfig
object line_configuration {
	name L_800045240_LineConfig;
	conductor_A OHCond_6_CU_I;
	conductor_B OHCond_6_CU_I;
	conductor_N OHCond_6_CU_I;
	spacing OHSpacing_HORIZONTAL_2P_88;
}

// L_800003392_LineConfig
object line_configuration {
	name L_800003392_LineConfig;
	conductor_A OHCond_4/0_CU_C;
	conductor_B OHCond_4/0_CU_C;
	conductor_C OHCond_4/0_CU_C;
	conductor_N OHCond_1/0_CU_C;
	spacing OHSpacing_HORIZONTAL_3P_45;
}

// L_800033512_LineConfig
object line_configuration {
	name L_800033512_LineConfig;
	conductor_A OHCond_715_AAC_I;
	conductor_B OHCond_715_AAC_I;
	conductor_C OHCond_715_AAC_I;
	conductor_N OHCond_397_AAC_I;
	spacing OHSpacing_HORIZONTAL_3P_45;
}

// L_800062336_LineConfig
object line_configuration {
	name L_800062336_LineConfig;
	conductor_A OHCond_1/0_AAC_C;
	conductor_B OHCond_1/0_AAC_C;
	conductor_C OHCond_1/0_AAC_C;
	conductor_N OHCond_1/0_AAC_C;
	spacing OHSpacing_HORIZONTAL_3P_52;
}

// L_800003429_LineConfig
object line_configuration {
	name L_800003429_LineConfig;
	conductor_A OHCond_6_CU_C;
	conductor_B OHCond_6_CU_C;
	conductor_C OHCond_6_CU_C;
	conductor_N OHCond_6_CU_C;
	spacing OHSpacing_HORIZONTAL_3P_45;
}

// L_800045244_LineConfig
object line_configuration {
	name L_800045244_LineConfig;
	conductor_A OHCond_6_CU_C;
	conductor_B OHCond_6_CU_C;
	conductor_N OHCond_6_CU_C;
	spacing OHSpacing_HORIZONTAL_2P_88;
}

// L_800046794_LineConfig
object line_configuration {
	name L_800046794_LineConfig;
	conductor_A OHCond_4/0_AAC_C;
	conductor_B OHCond_4/0_AAC_C;
	conductor_C OHCond_4/0_AAC_C;
	conductor_N OHCond_1/0_AAC_C;
	spacing OHSpacing_HORIZONTAL_3P_52;
}

// L_800003413_LineConfig
object line_configuration {
	name L_800003413_LineConfig;
	conductor_A OHCond_4/0_CU_C;
	conductor_B OHCond_4/0_CU_C;
	conductor_C OHCond_4/0_CU_C;
	conductor_N OHCond_1/0_CU_C;
	spacing OHSpacing_HORIZONTAL_3P_45;
}

// L_800003373_LineConfig
object line_configuration {
	name L_800003373_LineConfig;
	conductor_A OHCond_6_CU_C;
	conductor_N OHCond_6_CU_C;
	spacing OHSpacing_HORIZONTAL_1P_88;
}

// L_800045243_LineConfig
object line_configuration {
	name L_800045243_LineConfig;
	conductor_A OHCond_6_CU_C;
	conductor_B OHCond_6_CU_C;
	conductor_C OHCond_6_CU_C;
	spacing OHSpacing_HORIZONTAL_3P_39;
}

// L_800003403_LineConfig
object line_configuration {
	name L_800003403_LineConfig;
	conductor_A OHCond_6_CU_C;
	conductor_B OHCond_6_CU_C;
	conductor_N OHCond_6_CU_C;
	spacing OHSpacing_HORIZONTAL_2P_88;
}

// L_800003421_LineConfig
object line_configuration {
	name L_800003421_LineConfig;
	conductor_A OHCond_1/0_AAC_C;
	conductor_B OHCond_1/0_AAC_C;
	conductor_C OHCond_1/0_AAC_C;
	conductor_N OHCond_1/0_AAC_C;
	spacing OHSpacing_HORIZONTAL_3P_45;
}

// L_800003406_LineConfig
object line_configuration {
	name L_800003406_LineConfig;
	conductor_A OHCond_6_CU_C;
	conductor_B OHCond_6_CU_C;
	conductor_N OHCond_6_CU_C;
	spacing OHSpacing_HORIZONTAL_2P_88;
}

// L_800046792_LineConfig
object line_configuration {
	name L_800046792_LineConfig;
	conductor_C OHCond_4_CU_I;
	conductor_N OHCond_6_CU_I;
	spacing OHSpacing_HORIZONTAL_1P_88;
}

// L_800003427_LineConfig
object line_configuration {
	name L_800003427_LineConfig;
	conductor_A OHCond_6_CU_C;
	conductor_B OHCond_6_CU_C;
	conductor_C OHCond_6_CU_C;
	conductor_N OHCond_6_CU_C;
	spacing OHSpacing_HORIZONTAL_3P_45;
}

// L_800036219_LineConfig
object line_configuration {
	name L_800036219_LineConfig;
	conductor_C OHCond_4_CU_C;
	conductor_N OHCond_6_CU_C;
	spacing OHSpacing_HORIZONTAL_1P_88;
}

// L_800003428_LineConfig
object line_configuration {
	name L_800003428_LineConfig;
	conductor_A OHCond_4_ACSR_C;
	conductor_B OHCond_4_ACSR_C;
	conductor_C OHCond_4_ACSR_C;
	conductor_N OHCond_4_ACSR_C;
	spacing OHSpacing_HORIZONTAL_3P_45;
}

// L_800026328_LineConfig
object line_configuration {
	name L_800026328_LineConfig;
	conductor_A OHCond_6_CU_C;
	conductor_B OHCond_6_CU_C;
	conductor_C OHCond_6_CU_C;
	conductor_N OHCond_6_CU_C;
	spacing OHSpacing_HORIZONTAL_3P_45;
}

// L_800007005_LineConfig
object line_configuration {
	name L_800007005_LineConfig;
	conductor_A OHCond_715_AAC_C;
	conductor_B OHCond_715_AAC_C;
	conductor_C OHCond_715_AAC_C;
	conductor_N OHCond_397_AAC_C;
	spacing OHSpacing_TRIANGULAR_3P_45;
}

// L_800043868_LineConfig
object line_configuration {
	name L_800043868_LineConfig;
	conductor_A OHCond_6_CU_C;
	conductor_N OHCond_6_CU_C;
	spacing OHSpacing_HORIZONTAL_1P_88;
}

// L_800003389_LineConfig
object line_configuration {
	name L_800003389_LineConfig;
	conductor_A OHCond_1/0_AAC_C;
	conductor_B OHCond_1/0_AAC_C;
	conductor_C OHCond_1/0_AAC_C;
	conductor_N OHCond_1/0_AAC_C;
	spacing OHSpacing_HORIZONTAL_3P_45;
}

// L_800003387_LineConfig
object line_configuration {
	name L_800003387_LineConfig;
	conductor_A OHCond_4/0_CU_C;
	conductor_B OHCond_4/0_CU_C;
	conductor_C OHCond_4/0_CU_C;
	conductor_N OHCond_1/0_CU_C;
	spacing OHSpacing_HORIZONTAL_3P_45;
}

// L_800003422_LineConfig
object line_configuration {
	name L_800003422_LineConfig;
	conductor_A OHCond_6_CU_C;
	conductor_B OHCond_6_CU_C;
	conductor_C OHCond_6_CU_C;
	conductor_N OHCond_6_CU_C;
	spacing OHSpacing_HORIZONTAL_3P_45;
}

// L_800003377_LineConfig
object line_configuration {
	name L_800003377_LineConfig;
	conductor_A OHCond_4_ACSR_C;
	conductor_N OHCond_4_ACSR_C;
	spacing OHSpacing_HORIZONTAL_1P_88;
}

// L_800003388_LineConfig
object line_configuration {
	name L_800003388_LineConfig;
	conductor_A OHCond_4/0_CU_C;
	conductor_B OHCond_4/0_CU_C;
	conductor_C OHCond_4/0_CU_C;
	conductor_N OHCond_1/0_CU_C;
	spacing OHSpacing_HORIZONTAL_3P_45;
}

// L_800003378_LineConfig
object line_configuration {
	name L_800003378_LineConfig;
	conductor_A OHCond_4/0_CU_C;
	conductor_B OHCond_4/0_CU_C;
	conductor_C OHCond_4/0_CU_C;
	conductor_N OHCond_1/0_CU_C;
	spacing OHSpacing_HORIZONTAL_3P_45;
}

// L_800003418_LineConfig
object line_configuration {
	name L_800003418_LineConfig;
	conductor_A OHCond_1/0_AAC_C;
	conductor_B OHCond_1/0_AAC_C;
	conductor_C OHCond_1/0_AAC_C;
	conductor_N OHCond_1/0_AAC_C;
	spacing OHSpacing_HORIZONTAL_3P_45;
}

// L_800056706_LineConfig
object line_configuration {
	name L_800056706_LineConfig;
	conductor_A OHCond_715_AAC_C;
	conductor_B OHCond_715_AAC_C;
	conductor_C OHCond_715_AAC_C;
	conductor_N OHCond_397_AAC_C;
	spacing OHSpacing_TRIANGULAR_3P_45;
}

// L_800045248_LineConfig
object line_configuration {
	name L_800045248_LineConfig;
	conductor_A OHCond_6_CU_C;
	conductor_B OHCond_6_CU_C;
	conductor_C OHCond_6_CU_C;
	conductor_N OHCond_6_CU_C;
	spacing OHSpacing_HORIZONTAL_3P_52;
}

// L_800026329_LineConfig
object line_configuration {
	name L_800026329_LineConfig;
	conductor_A OHCond_1/0_AAC_C;
	conductor_B OHCond_1/0_AAC_C;
	conductor_C OHCond_1/0_AAC_C;
	conductor_N OHCond_1/0_AAC_C;
	spacing OHSpacing_HORIZONTAL_3P_45;
}

// L_800003401_LineConfig
object line_configuration {
	name L_800003401_LineConfig;
	conductor_A OHCond_6_CU_C;
	conductor_B OHCond_6_CU_C;
	conductor_C OHCond_6_CU_C;
	conductor_N OHCond_6_CU_C;
	spacing OHSpacing_HORIZONTAL_3P_52;
}

// L_800003419_LineConfig
object line_configuration {
	name L_800003419_LineConfig;
	conductor_A OHCond_6_CU_C;
	conductor_B OHCond_6_CU_C;
	conductor_C OHCond_6_CU_C;
	conductor_N OHCond_6_CU_C;
	spacing OHSpacing_HORIZONTAL_3P_52;
}

// L_800045251_LineConfig
object line_configuration {
	name L_800045251_LineConfig;
	conductor_A OHCond_1/0_CU_C;
	conductor_B OHCond_1/0_CU_C;
	conductor_C OHCond_1/0_CU_C;
	conductor_N OHCond_2_CU_C;
	spacing OHSpacing_HORIZONTAL_3P_45;
}

// L_800028308_LineConfig
object line_configuration {
	name L_800028308_LineConfig;
	conductor_A OHCond_4/0_AAC_C;
	conductor_B OHCond_4/0_AAC_C;
	conductor_C OHCond_4/0_AAC_C;
	spacing OHSpacing_HORIZONTAL_3P_52;
}

// L_800033511_LineConfig
object line_configuration {
	name L_800033511_LineConfig;
	conductor_A OHCond_715_AAC_I;
	conductor_B OHCond_715_AAC_I;
	conductor_C OHCond_715_AAC_I;
	conductor_N OHCond_397_AAC_I;
	spacing OHSpacing_HORIZONTAL_3P_45;
}

// L_800009591_LineConfig
object line_configuration {
	name L_800009591_LineConfig;
	conductor_A OHCond_6_CU_C;
	conductor_B OHCond_6_CU_C;
	conductor_C OHCond_6_CU_C;
	conductor_N OHCond_6_CU_C;
	spacing OHSpacing_HORIZONTAL_3P_52;
}

// L_800003385_LineConfig
object line_configuration {
	name L_800003385_LineConfig;
	conductor_A OHCond_6_CU_C;
	conductor_N OHCond_6_CU_C;
	spacing OHSpacing_HORIZONTAL_1P_88;
}

// L_800056496_LineConfig
object line_configuration {
	name L_800056496_LineConfig;
	conductor_A OHCond_4/0_CU_C;
	conductor_B OHCond_4/0_CU_C;
	conductor_C OHCond_4/0_CU_C;
	conductor_N OHCond_1/0_CU_C;
	spacing OHSpacing_HORIZONTAL_3P_45;
}

// L_800003381_LineConfig
object line_configuration {
	name L_800003381_LineConfig;
	conductor_A OHCond_4/0_CU_C;
	conductor_B OHCond_4/0_CU_C;
	conductor_C OHCond_4/0_CU_C;
	conductor_N OHCond_1/0_CU_C;
	spacing OHSpacing_HORIZONTAL_3P_45;
}

// L_800045245_LineConfig
object line_configuration {
	name L_800045245_LineConfig;
	conductor_A OHCond_6_CU_C;
	conductor_B OHCond_6_CU_C;
	conductor_N OHCond_6_CU_C;
	spacing OHSpacing_HORIZONTAL_2P_88;
}

// L_800054495_LineConfig
object line_configuration {
	name L_800054495_LineConfig;
	conductor_A OHCond_4/0_CU_C;
	conductor_B OHCond_4/0_CU_C;
	conductor_C OHCond_4/0_CU_C;
	conductor_N OHCond_1/0_CU_C;
	spacing OHSpacing_HORIZONTAL_3P_45;
}

// L_800003432_LineConfig
object line_configuration {
	name L_800003432_LineConfig;
	conductor_A OHCond_4_ACSR_C;
	conductor_N OHCond_4_ACSR_C;
	spacing OHSpacing_HORIZONTAL_1P_88;
}

// L_800003412_LineConfig
object line_configuration {
	name L_800003412_LineConfig;
	conductor_A OHCond_6_CU_C;
	conductor_N OHCond_6_CU_C;
	spacing OHSpacing_HORIZONTAL_1P_88;
}

// L_800045246_LineConfig
object line_configuration {
	name L_800045246_LineConfig;
	conductor_A OHCond_6_CU_C;
	conductor_B OHCond_6_CU_C;
	conductor_N OHCond_6_CU_C;
	spacing OHSpacing_HORIZONTAL_2P_88;
}

// L_800003400_LineConfig
object line_configuration {
	name L_800003400_LineConfig;
	conductor_A OHCond_6_CU_C;
	conductor_B OHCond_6_CU_C;
	conductor_C OHCond_6_CU_C;
	conductor_N OHCond_6_CU_C;
	spacing OHSpacing_HORIZONTAL_3P_39;
}

// L_800003423_LineConfig
object line_configuration {
	name L_800003423_LineConfig;
	conductor_A OHCond_1/0_AAC_C;
	conductor_B OHCond_1/0_AAC_C;
	conductor_C OHCond_1/0_AAC_C;
	conductor_N OHCond_1/0_AAC_C;
	spacing OHSpacing_HORIZONTAL_3P_52;
}

// L_800028301_LineConfig
object line_configuration {
	name L_800028301_LineConfig;
	conductor_C OHCond_6_CU_C;
	conductor_N OHCond_6_CU_C;
	spacing OHSpacing_HORIZONTAL_1P_45;
}

// L_800025897_LineConfig
object line_configuration {
	name L_800025897_LineConfig;
	conductor_C OHCond_6_CU_C;
	conductor_N OHCond_6_CU_C;
	spacing OHSpacing_HORIZONTAL_1P_45;
}

// L_800061442_LineConfig
object line_configuration {
	name L_800061442_LineConfig;
	conductor_A OHCond_1/0_AAC_C;
	conductor_B OHCond_1/0_AAC_C;
	conductor_C OHCond_1/0_AAC_C;
	conductor_N OHCond_1/0_AAC_C;
	spacing OHSpacing_HORIZONTAL_3P_45;
}

// L_800003409_LineConfig
object line_configuration {
	name L_800003409_LineConfig;
	conductor_A OHCond_4/0_CU_C;
	conductor_B OHCond_4/0_CU_C;
	conductor_C OHCond_4/0_CU_C;
	conductor_N OHCond_1/0_CU_C;
	spacing OHSpacing_HORIZONTAL_3P_45;
}

// L_800003408_LineConfig
object line_configuration {
	name L_800003408_LineConfig;
	conductor_A OHCond_4_CU_C;
	conductor_N OHCond_4_CU_C;
	spacing OHSpacing_HORIZONTAL_1P_88;
}

// L_800030067_LineConfig
object line_configuration {
	name L_800030067_LineConfig;
	conductor_A OHCond_6_CU_C;
	conductor_B OHCond_6_CU_C;
	conductor_C OHCond_6_CU_C;
	conductor_N OHCond_6_CU_C;
	spacing OHSpacing_HORIZONTAL_3P_45;
}

// L_800045252_LineConfig
object line_configuration {
	name L_800045252_LineConfig;
	conductor_A OHCond_1/0_CU_C;
	conductor_B OHCond_1/0_CU_C;
	conductor_C OHCond_1/0_CU_C;
	conductor_N OHCond_2_CU_C;
	spacing OHSpacing_HORIZONTAL_3P_45;
}

// L_800033503_LineConfig
object line_configuration {
	name L_800033503_LineConfig;
	conductor_A OHCond_715_AAC_I;
	conductor_B OHCond_715_AAC_I;
	conductor_C OHCond_715_AAC_I;
	conductor_N OHCond_397_AAC_I;
	spacing OHSpacing_TRIANGULAR_3P_45;
}

// L_800003416_LineConfig
object line_configuration {
	name L_800003416_LineConfig;
	conductor_A OHCond_1/0_AAC_C;
	conductor_B OHCond_1/0_AAC_C;
	spacing OHSpacing_HORIZONTAL_2P_88;
}

// L_800003390_LineConfig
object line_configuration {
	name L_800003390_LineConfig;
	conductor_A OHCond_4/0_CU_C;
	conductor_B OHCond_4/0_CU_C;
	conductor_C OHCond_4/0_CU_C;
	conductor_N OHCond_1/0_CU_C;
	spacing OHSpacing_HORIZONTAL_3P_45;
}

// L_800028309_LineConfig
object line_configuration {
	name L_800028309_LineConfig;
	conductor_A OHCond_4/0_AAC_C;
	conductor_B OHCond_4/0_AAC_C;
	conductor_C OHCond_4/0_AAC_C;
	conductor_N OHCond_4/0_AAC_C;
	spacing OHSpacing_HORIZONTAL_3P_88;
}

// L_800003398_LineConfig
object line_configuration {
	name L_800003398_LineConfig;
	conductor_A OHCond_4_ACSR_C;
	conductor_B OHCond_4_ACSR_C;
	conductor_N OHCond_4_ACSR_C;
	spacing OHSpacing_HORIZONTAL_2P_88;
}

// L_800003424_LineConfig
object line_configuration {
	name L_800003424_LineConfig;
	conductor_A OHCond_6_CU_C;
	conductor_N OHCond_6_CU_C;
	spacing OHSpacing_HORIZONTAL_1P_52;
}

// L_800043869_LineConfig
object line_configuration {
	name L_800043869_LineConfig;
	conductor_A OHCond_4/0_CU_C;
	conductor_B OHCond_4/0_CU_C;
	conductor_C OHCond_4/0_CU_C;
	conductor_N OHCond_1/0_CU_C;
	spacing OHSpacing_HORIZONTAL_3P_45;
}

// L_800045253_LineConfig
object line_configuration {
	name L_800045253_LineConfig;
	conductor_A OHCond_4/0_CU_C;
	conductor_B OHCond_4/0_CU_C;
	conductor_C OHCond_4/0_CU_C;
	conductor_N OHCond_1/0_CU_C;
	spacing OHSpacing_HORIZONTAL_3P_45;
}

// L_800003414_LineConfig
object line_configuration {
	name L_800003414_LineConfig;
	conductor_A OHCond_4_ACSR_C;
	conductor_N OHCond_4_ACSR_C;
	spacing OHSpacing_HORIZONTAL_1P_88;
}

// L_800035305_LineConfig
object line_configuration {
	name L_800035305_LineConfig;
	conductor_A OHCond_6_CU_I;
	conductor_B OHCond_6_CU_I;
	conductor_N OHCond_6_CU_I;
	spacing OHSpacing_HORIZONTAL_2P_88;
}

// L_800009588_LineConfig
object line_configuration {
	name L_800009588_LineConfig;
	conductor_A OHCond_6_CU_C;
	conductor_B OHCond_6_CU_C;
	conductor_C OHCond_6_CU_C;
	conductor_N OHCond_6_CU_C;
	spacing OHSpacing_HORIZONTAL_3P_39;
}

// L_800045257_LineConfig
object line_configuration {
	name L_800045257_LineConfig;
	conductor_A OHCond_6_CU_C;
	conductor_B OHCond_6_CU_C;
	conductor_C OHCond_6_CU_C;
	conductor_N OHCond_6_CU_C;
	spacing OHSpacing_HORIZONTAL_3P_45;
}

// L_800055640_LineConfig
object line_configuration {
	name L_800055640_LineConfig;
	conductor_A OHCond_4/0_AAC_C;
	conductor_B OHCond_4/0_AAC_C;
	conductor_C OHCond_4/0_AAC_C;
	conductor_N OHCond_4/0_AAC_C;
	spacing OHSpacing_HORIZONTAL_3P_88;
}

// L_800061662_LineConfig
object line_configuration {
	name L_800061662_LineConfig;
	conductor_A OHCond_1/0_AAC_C;
	conductor_B OHCond_1/0_AAC_C;
	conductor_C OHCond_1/0_AAC_C;
	conductor_N OHCond_1/0_AAC_C;
	spacing OHSpacing_HORIZONTAL_3P_45;
}

// L_800045256_LineConfig
object line_configuration {
	name L_800045256_LineConfig;
	conductor_A OHCond_1/0_AAC_C;
	conductor_B OHCond_1/0_AAC_C;
	conductor_C OHCond_1/0_AAC_C;
	conductor_N OHCond_1/0_AAC_C;
	spacing OHSpacing_HORIZONTAL_3P_45;
}

// L_800003383_LineConfig
object line_configuration {
	name L_800003383_LineConfig;
	conductor_A OHCond_4/0_CU_C;
	conductor_B OHCond_4/0_CU_C;
	conductor_C OHCond_4/0_CU_C;
	conductor_N OHCond_1/0_CU_C;
	spacing OHSpacing_HORIZONTAL_3P_45;
}

// L_800045254_LineConfig
object line_configuration {
	name L_800045254_LineConfig;
	conductor_A OHCond_4/0_CU_C;
	conductor_B OHCond_4/0_CU_C;
	conductor_C OHCond_4/0_CU_C;
	conductor_N OHCond_1/0_CU_C;
	spacing OHSpacing_HORIZONTAL_3P_45;
}

// L_800045242_LineConfig
object line_configuration {
	name L_800045242_LineConfig;
	conductor_A OHCond_6_CU_C;
	conductor_B OHCond_6_CU_C;
	conductor_C OHCond_6_CU_C;
	conductor_N OHCond_6_CU_C;
	spacing OHSpacing_HORIZONTAL_3P_39;
}

// L_800003410_LineConfig
object line_configuration {
	name L_800003410_LineConfig;
	conductor_A OHCond_4_ACSR_C;
	conductor_N OHCond_4_ACSR_C;
	spacing OHSpacing_HORIZONTAL_1P_88;
}

// L_800003374_LineConfig
object line_configuration {
	name L_800003374_LineConfig;
	conductor_A OHCond_6_CU_C;
	conductor_N OHCond_6_CU_C;
	spacing OHSpacing_HORIZONTAL_1P_88;
}

// L_800003384_LineConfig
object line_configuration {
	name L_800003384_LineConfig;
	conductor_A OHCond_4_ACSR_C;
	conductor_N OHCond_4_ACSR_C;
	spacing OHSpacing_HORIZONTAL_1P_88;
}

// L_800003430_LineConfig
object line_configuration {
	name L_800003430_LineConfig;
	conductor_A OHCond_4_ACSR_C;
	conductor_B OHCond_4_ACSR_C;
	conductor_C OHCond_4_ACSR_C;
	conductor_N OHCond_4_ACSR_C;
	spacing OHSpacing_HORIZONTAL_3P_52;
}

// L_800003426_LineConfig
object line_configuration {
	name L_800003426_LineConfig;
	conductor_A OHCond_6_CU_C;
	conductor_N OHCond_6_CU_C;
	spacing OHSpacing_HORIZONTAL_1P_88;
}

// L_800028310_LineConfig
object line_configuration {
	name L_800028310_LineConfig;
	conductor_A OHCond_6_CU_C;
	conductor_N OHCond_6_CU_C;
	spacing OHSpacing_HORIZONTAL_1P_52;
}

// L_800017884_LineConfig
object line_configuration {
	name L_800017884_LineConfig;
	conductor_A OHCond_1/0_CU_C;
	conductor_B OHCond_1/0_CU_C;
	conductor_C OHCond_1/0_CU_C;
	conductor_N OHCond_1/0_CU_C;
	spacing OHSpacing_HORIZONTAL_3P_45;
}

// L_800003425_LineConfig
object line_configuration {
	name L_800003425_LineConfig;
	conductor_A OHCond_1/0_AAC_C;
	conductor_B OHCond_1/0_AAC_C;
	conductor_C OHCond_1/0_AAC_C;
	conductor_N OHCond_1/0_AAC_C;
	spacing OHSpacing_HORIZONTAL_3P_52;
}

// L_800003399_LineConfig
object line_configuration {
	name L_800003399_LineConfig;
	conductor_A OHCond_4_ACSR_C;
	conductor_B OHCond_4_ACSR_C;
	conductor_N OHCond_4_ACSR_C;
	spacing OHSpacing_HORIZONTAL_2P_88;
}

// L_800055903_LineConfig
object line_configuration {
	name L_800055903_LineConfig;
	conductor_A OHCond_4/0_CU_C;
	conductor_B OHCond_4/0_CU_C;
	conductor_C OHCond_4/0_CU_C;
	conductor_N OHCond_1/0_CU_C;
	spacing OHSpacing_HORIZONTAL_3P_45;
}

// L_800003386_LineConfig
object line_configuration {
	name L_800003386_LineConfig;
	conductor_A OHCond_4/0_CU_C;
	conductor_B OHCond_4/0_CU_C;
	conductor_C OHCond_4/0_CU_C;
	conductor_N OHCond_1/0_CU_C;
	spacing OHSpacing_HORIZONTAL_3P_45;
}

// L_800003402_LineConfig
object line_configuration {
	name L_800003402_LineConfig;
	conductor_A OHCond_6_CU_C;
	conductor_B OHCond_6_CU_C;
	conductor_N OHCond_6_CU_C;
	spacing OHSpacing_HORIZONTAL_2P_88;
}

// L_800009587_LineConfig
object line_configuration {
	name L_800009587_LineConfig;
	conductor_A OHCond_6_CU_C;
	conductor_B OHCond_6_CU_C;
	conductor_C OHCond_6_CU_C;
	spacing OHSpacing_HORIZONTAL_3P_39;
}

// L_800028307_LineConfig
object line_configuration {
	name L_800028307_LineConfig;
	conductor_A OHCond_4/0_AAC_C;
	conductor_B OHCond_4/0_AAC_C;
	conductor_C OHCond_4/0_AAC_C;
	conductor_N OHCond_4/0_AAC_C;
	spacing OHSpacing_HORIZONTAL_3P_88;
}

// L_800032919_LineConfig
object line_configuration {
	name L_800032919_LineConfig;
	conductor_A OHCond_715_AAC_I;
	conductor_B OHCond_715_AAC_I;
	conductor_C OHCond_715_AAC_I;
	conductor_N OHCond_397_AAC_I;
	spacing OHSpacing_HORIZONTAL_3P_39;
}

// L_800003431_LineConfig
object line_configuration {
	name L_800003431_LineConfig;
	conductor_A OHCond_6_CU_C;
	conductor_B OHCond_6_CU_C;
	conductor_C OHCond_6_CU_C;
	conductor_N OHCond_6_CU_C;
	spacing OHSpacing_HORIZONTAL_3P_45;
}

// L_800045241_LineConfig
object line_configuration {
	name L_800045241_LineConfig;
	conductor_A OHCond_6_CU_I;
	conductor_B OHCond_6_CU_I;
	conductor_N OHCond_6_CU_I;
	spacing OHSpacing_HORIZONTAL_2P_88;
}

// UGConfig_700_AL_XLP-CONC-PVC_22KV_3P
object line_configuration {
	name UGConfig_700_AL_XLP-CONC-PVC_22KV_3P;
	conductor_A UGCable_DEFAULT;
	conductor_B UGCable_DEFAULT;
	conductor_C UGCable_DEFAULT;
	conductor_N UGCable_DEFAULT;
	spacing UGSpacing_700_AL_XLP-CONC-PVC_22KV_3P;
}

// UGConfig_1/0_AL_EPR-CONC-ENCAP-PE_1P
object line_configuration {
	name UGConfig_1/0_AL_EPR-CONC-ENCAP-PE_1P;
	conductor_A UGCable_DEFAULT;
	conductor_B UGCable_DEFAULT;
	conductor_C UGCable_DEFAULT;
	conductor_N UGCable_DEFAULT;
	spacing UGSpacing_1/0_AL_EPR-CONC-ENCAP-PE_1P;
}

// UGConfig_DEFAULT
object line_configuration {
	name UGConfig_DEFAULT;
	conductor_A UGCable_DEFAULT;
	conductor_B UGCable_DEFAULT;
	conductor_C UGCable_DEFAULT;
	conductor_N UGCable_DEFAULT;
	spacing UGSpacing_DEFAULT;
}

// UGConfig_2_AL_PEC_22KV_3P
object line_configuration {
	name UGConfig_2_AL_PEC_22KV_3P;
	conductor_A UGCable_DEFAULT;
	conductor_B UGCable_DEFAULT;
	conductor_C UGCable_DEFAULT;
	conductor_N UGCable_DEFAULT;
	spacing UGSpacing_2_AL_PEC_22KV_3P;
}

// UGConfig_4/0_AL_XLP-CONC-PVC_22KV_3P
object line_configuration {
	name UGConfig_4/0_AL_XLP-CONC-PVC_22KV_3P;
	conductor_A UGCable_DEFAULT;
	conductor_B UGCable_DEFAULT;
	conductor_C UGCable_DEFAULT;
	conductor_N UGCable_DEFAULT;
	spacing UGSpacing_4/0_AL_XLP-CONC-PVC_22KV_3P;
}

// UGConfig_250_CU_1C_P&L_5KV_3P&N
object line_configuration {
	name UGConfig_250_CU_1C_P&L_5KV_3P&N;
	conductor_A UGCable_DEFAULT;
	conductor_B UGCable_DEFAULT;
	conductor_C UGCable_DEFAULT;
	conductor_N UGCable_DEFAULT;
	spacing UGSpacing_250_CU_1C_P&L_5KV_3P&N;
}

// UGConfig_2_AL_PEC_15KV_3P
object line_configuration {
	name UGConfig_2_AL_PEC_15KV_3P;
	conductor_A UGCable_DEFAULT;
	conductor_B UGCable_DEFAULT;
	conductor_C UGCable_DEFAULT;
	conductor_N UGCable_DEFAULT;
	spacing UGSpacing_2_AL_PEC_15KV_3P;
}

// UGConfig_2_AL_XLP-CONC-PVC_22KV_3P
object line_configuration {
	name UGConfig_2_AL_XLP-CONC-PVC_22KV_3P;
	conductor_A UGCable_DEFAULT;
	conductor_B UGCable_DEFAULT;
	conductor_C UGCable_DEFAULT;
	conductor_N UGCable_DEFAULT;
	spacing UGSpacing_2_AL_XLP-CONC-PVC_22KV_3P;
}

// UGConfig_4/0_AL_XLP-CONC-CIC_22KV_3P&N
object line_configuration {
	name UGConfig_4/0_AL_XLP-CONC-CIC_22KV_3P&N;
	conductor_A UGCable_DEFAULT;
	conductor_B UGCable_DEFAULT;
	conductor_C UGCable_DEFAULT;
	conductor_N UGCable_DEFAULT;
	spacing UGSpacing_4/0_AL_XLP-CONC-CIC_22KV_3P&N;
}

// UGConfig_2_AL_XLP-CONC-PVC_22KV_1P
object line_configuration {
	name UGConfig_2_AL_XLP-CONC-PVC_22KV_1P;
	conductor_A UGCable_DEFAULT;
	conductor_B UGCable_DEFAULT;
	conductor_C UGCable_DEFAULT;
	conductor_N UGCable_DEFAULT;
	spacing UGSpacing_2_AL_XLP-CONC-PVC_22KV_1P;
}

// UGConfig_2_CU_RO&N_5KV_1P&N
object line_configuration {
	name UGConfig_2_CU_RO&N_5KV_1P&N;
	conductor_A UGCable_DEFAULT;
	conductor_B UGCable_DEFAULT;
	conductor_C UGCable_DEFAULT;
	conductor_N UGCable_DEFAULT;
	spacing UGSpacing_2_CU_RO&N_5KV_1P&N;
}

// UGConfig_1/0_AL_EPR-CONC-ENCAP-PE_3P
object line_configuration {
	name UGConfig_1/0_AL_EPR-CONC-ENCAP-PE_3P;
	conductor_A UGCable_DEFAULT;
	conductor_B UGCable_DEFAULT;
	conductor_C UGCable_DEFAULT;
	conductor_N UGCable_DEFAULT;
	spacing UGSpacing_1/0_AL_EPR-CONC-ENCAP-PE_3P;
}

// UGConfig_1/0_AL_XLP-CONC-PVC_22KV_3P&N
object line_configuration {
	name UGConfig_1/0_AL_XLP-CONC-PVC_22KV_3P&N;
	conductor_A UGCable_DEFAULT;
	conductor_B UGCable_DEFAULT;
	conductor_C UGCable_DEFAULT;
	conductor_N UGCable_DEFAULT;
	spacing UGSpacing_1/0_AL_XLP-CONC-PVC_22KV_3P&N;
}

// UGConfig_4_CU_1C_P&L_5KV_1P&N
object line_configuration {
	name UGConfig_4_CU_1C_P&L_5KV_1P&N;
	conductor_A UGCable_DEFAULT;
	conductor_B UGCable_DEFAULT;
	conductor_C UGCable_DEFAULT;
	conductor_N UGCable_DEFAULT;
	spacing UGSpacing_4_CU_1C_P&L_5KV_1P&N;
}

// UGConfig_500_CU_XLP-PVC_15KV_3P&N
object line_configuration {
	name UGConfig_500_CU_XLP-PVC_15KV_3P&N;
	conductor_A UGCable_DEFAULT;
	conductor_B UGCable_DEFAULT;
	conductor_C UGCable_DEFAULT;
	conductor_N UGCable_DEFAULT;
	spacing UGSpacing_500_CU_XLP-PVC_15KV_3P&N;
}

// UGConfig_500_CU_EPR-CONC-ENCAP-PE_3P
object line_configuration {
	name UGConfig_500_CU_EPR-CONC-ENCAP-PE_3P;
	conductor_A UGCable_DEFAULT;
	conductor_B UGCable_DEFAULT;
	conductor_C UGCable_DEFAULT;
	conductor_N UGCable_DEFAULT;
	spacing UGSpacing_500_CU_EPR-CONC-ENCAP-PE_3P;
}

// UGConfig_1000_AL_XLP-CONC-PVC_22KV_3P
object line_configuration {
	name UGConfig_1000_AL_XLP-CONC-PVC_22KV_3P;
	conductor_A UGCable_DEFAULT;
	conductor_B UGCable_DEFAULT;
	conductor_C UGCable_DEFAULT;
	conductor_N UGCable_DEFAULT;
	spacing UGSpacing_1000_AL_XLP-CONC-PVC_22KV_3P;
}

//*********************************************
// Node Objects
//*********************************************
object node {
	name N_800055198;
	nominal_voltage 2523.021;
	phases AB;
}

object node {
	name N_800003834;
	nominal_voltage 2523.021;
	phases ABC;
}

object node {
	name N_800003835;
	nominal_voltage 2523.021;
	phases ABC;
}

object node {
	name N_800003836;
	nominal_voltage 2523.021;
	phases ABC;
}

object node {
	name N_800055195;
	nominal_voltage 2523.021;
	phases A;
}

object node {
	name N_800007616;
	nominal_voltage 2523.021;
	phases ABC;
}

object node {
	name N_800055197;
	nominal_voltage 2523.021;
	phases AB;
}

object node {
	name N_800024248;
	nominal_voltage 2523.021;
	phases ABC;
}

object node {
	name N_800040136;
	nominal_voltage 2523.021;
	phases ABC;
}

object node {
	name N_C0685_24050401-SC;
	nominal_voltage 2523.021;
	phases ABC;
}

object node {
	name N_800024241;
	nominal_voltage 2523.021;
	phases ABC;
}

object node {
	name N_800024242;
	nominal_voltage 2523.021;
	phases ABC;
}

object node {
	name N_800024243;
	nominal_voltage 2523.021;
	phases A;
}

object node {
	name N_800013459;
	nominal_voltage 2523.021;
	phases C;
}

object node {
	name N_800013458;
	nominal_voltage 2523.021;
	phases C;
}

object node {
	name N_800003801;
	nominal_voltage 2523.021;
	phases ABC;
}

object node {
	name N_800003802;
	nominal_voltage 2523.021;
	phases ABC;
}

object node {
	name N_800003805;
	nominal_voltage 2523.021;
	phases ABC;
}

object node {
	name N_800003804;
	nominal_voltage 2523.021;
	phases ABC;
}

object node {
	name N_800003807;
	nominal_voltage 2523.021;
	phases ABC;
}

object node {
	name N_800032438;
	nominal_voltage 2523.021;
	phases ABC;
}

object node {
	name N_800032439;
	nominal_voltage 2523.021;
	phases ABC;
}

object node {
	name N_800007627;
	nominal_voltage 2523.021;
	phases ABC;
}

object node {
	name N_800007621;
	nominal_voltage 2523.021;
	phases ABC;
}

object node {
	name N_800007622;
	nominal_voltage 2523.021;
	phases ABC;
}

object node {
	name N_800055196;
	nominal_voltage 2523.021;
	phases AB;
}

object node {
	name N_800003832;
	nominal_voltage 2523.021;
	phases ABC;
}

object node {
	name N_800055208;
	nominal_voltage 2523.021;
	phases A;
}

object node {
	name N_800052157;
	nominal_voltage 2523.021;
	phases B;
}

object node {
	name N_800003812;
	nominal_voltage 2523.021;
	phases ABC;
}

object node {
	name N_C0484_24050401-SC;
	nominal_voltage 2523.021;
	phases ABC;
}

object node {
	name N_800032036;
	nominal_voltage 2523.021;
	phases ABC;
}

object node {
	name N_800032037;
	nominal_voltage 2523.021;
	phases ABC;
}

object node {
	name N_800110507;
	nominal_voltage 2523.021;
	phases ABC;
}

object node {
	name N_800110505;
	nominal_voltage 2523.021;
	phases ABC;
}

object node {
	name N_800110504;
	nominal_voltage 2523.021;
	phases ABC;
}

object node {
	name N_800110508;
	nominal_voltage 2523.021;
	phases ABC;
}

object node {
	name N_800010253;
	nominal_voltage 2523.021;
	phases ABC;
}

object node {
	name N_800010258;
	nominal_voltage 2523.021;
	phases ABC;
}

object node {
	name N_800028288;
	nominal_voltage 2523.021;
	phases ABC;
}

object node {
	name N_800028286;
	nominal_voltage 2523.021;
	phases ABC;
}

object node {
	name N_800028283;
	nominal_voltage 2523.021;
	phases C;
}

object node {
	name N_800026146;
	nominal_voltage 2523.021;
	phases C;
}

object node {
	name N_800026140;
	nominal_voltage 2523.021;
	phases ABC;
}

object node {
	name N_800013460;
	nominal_voltage 2523.021;
	phases C;
}

object node {
	name N_800013461;
	nominal_voltage 2523.021;
	phases C;
}

object node {
	name N_800055219;
	nominal_voltage 2523.021;
	phases ABC;
}

object node {
	name N_800111531;
	nominal_voltage 2523.021;
	phases ABC;
}

object node {
	name N_800111530;
	nominal_voltage 2523.021;
	phases ABC;
}

object node {
	name N_800111532;
	nominal_voltage 2523.021;
	phases ABC;
}

object node {
	name N_800111534;
	nominal_voltage 2523.021;
	phases ABC;
}

object node {
	name N_800003844;
	nominal_voltage 2523.021;
	phases A;
}

object node {
	name N_800054469;
	nominal_voltage 2523.021;
	phases A;
}

object node {
	name N_800003846;
	nominal_voltage 2523.021;
	phases ABC;
}

object node {
	name N_800003841;
	nominal_voltage 2523.021;
	phases ABC;
}

object node {
	name N_800003840;
	nominal_voltage 2523.021;
	phases ABC;
}

object node {
	name N_800003843;
	nominal_voltage 2523.021;
	phases ABC;
}

object node {
	name N_800003849;
	nominal_voltage 2523.021;
	phases ABC;
}

object node {
	name N_800003848;
	nominal_voltage 2523.021;
	phases ABC;
}

object node {
	name N_800003790;
	nominal_voltage 2523.021;
	phases ABC;
}

object node {
	name N_800003793;
	nominal_voltage 2523.021;
	phases ABC;
}

object node {
	name N_800003797;
	nominal_voltage 2523.021;
	phases ABC;
}

object node {
	name N_800013390;
	nominal_voltage 2523.021;
	phases A;
}

object node {
	name N_800026556;
	nominal_voltage 2523.021;
	phases ABC;
}

object node {
	name N_800003858;
	nominal_voltage 2523.021;
	phases ABC;
}

object node {
	name N_800003852;
	nominal_voltage 2523.021;
	phases ABC;
}

object node {
	name N_800003850;
	nominal_voltage 2523.021;
	phases ABC;
}

object node {
	name N_800026138;
	nominal_voltage 2523.021;
	phases B;
}

object node {
	name N_800026139;
	nominal_voltage 2523.021;
	phases B;
}

object node {
	name N_800053500;
	nominal_voltage 2523.021;
	phases ABC;
}

object node {
	name N_800003789;
	nominal_voltage 2523.021;
	phases A;
}

object node {
	name N_800007625;
	nominal_voltage 2523.021;
	phases ABC;
}

object node {
	name N_800036819;
	nominal_voltage 2523.021;
	phases ABC;
	bustype SWING;
}

object node {
	name N_800003827;
	nominal_voltage 2523.021;
	phases A;
}

object node {
	name N_800003826;
	nominal_voltage 2523.021;
	phases ABC;
}

object node {
	name N_800003825;
	nominal_voltage 2523.021;
	phases ABC;
}

object node {
	name N_800003824;
	nominal_voltage 2523.021;
	phases ABC;
}

object node {
	name N_800003822;
	nominal_voltage 2523.021;
	phases ABC;
}

object node {
	name N_800032040;
	nominal_voltage 2523.021;
	phases ABC;
}

object node {
	name N_800003847;
	nominal_voltage 2523.021;
	phases ABC;
}

object node {
	name N_800032440;
	nominal_voltage 2523.021;
	phases ABC;
}

object node {
	name N_800032442;
	nominal_voltage 2523.021;
	phases ABC;
}

object node {
	name N_800055379;
	nominal_voltage 2523.021;
	phases ABC;
}

object node {
	name N_800052099;
	nominal_voltage 2523.021;
	phases ABC;
}

//*********************************************
// Load Objects
//*********************************************
object load {
	name N_800003816;
	phases ABC;
	nominal_voltage 2523.021;
	constant_power_A_real 8048.06666667;
	constant_power_B_real 8048.06666667;
	constant_power_C_real 8048.06666667;
	constant_power_A_reac 2645.27159075;
	constant_power_B_reac 2645.27159075;
	constant_power_C_reac 2645.27159075;
}

object load {
	name N_800003814;
	phases ABC;
	nominal_voltage 2523.021;
	constant_power_A 4037.919;
	constant_power_B 4037.919;
	constant_power_C 4037.919;
	constant_power_A 1327.1997933;
	constant_power_B 1327.1997933;
	constant_power_C 1327.1997933;
}

object load {
	name N_800041282;
	phases ABC;
	nominal_voltage 2523.021;
	constant_power_A 7917.54233333;
	constant_power_B 7917.54233333;
	constant_power_C 7917.54233333;
	constant_power_A 2602.37031705;
	constant_power_B 2602.37031705;
	constant_power_C 2602.37031705;
}

object load {
	name N_800047076;
	phases B;
	nominal_voltage 2523.021;
	constant_power_A 0;
	constant_power_B 13196.83;
	constant_power_C 0;
	constant_power_A 0;
	constant_power_B 4337.58825975;
	constant_power_C 0;
}

object load {
	name N_800003810;
	phases A;
	nominal_voltage 2523.021;
	constant_power_A 35583.119;
	constant_power_B 0;
	constant_power_C 0;
	constant_power_A 11695.605628;
	constant_power_B 0;
	constant_power_C 0;
}

object load {
	name N_800047075;
	phases B;
	nominal_voltage 2523.021;
	constant_power_A 0;
	constant_power_B 19803.576;
	constant_power_C 0;
	constant_power_A 0;
	constant_power_B 6509.1206569;
	constant_power_C 0;
}

object load {
	name N_800054753;
	phases ABC;
	nominal_voltage 2523.021;
	constant_power_A 6255.494;
	constant_power_B 6255.494;
	constant_power_C 6255.494;
	constant_power_A 3876.80699041;
	constant_power_B 3876.80699041;
	constant_power_C 3876.80699041;
}

object load {
	name N_800003851;
	phases A;
	nominal_voltage 2523.021;
	constant_power_A 12871.908;
	constant_power_B 0;
	constant_power_C 0;
	constant_power_A 4230.79156292;
	constant_power_B 0;
	constant_power_C 0;
}

object load {
	name N_800034662;
	phases A;
	nominal_voltage 2523.021;
	constant_power_A 20670.034;
	constant_power_B 0;
	constant_power_C 0;
	constant_power_A 6793.91162931;
	constant_power_B 0;
	constant_power_C 0;
}

object load {
	name N_800003833;
	phases A;
	nominal_voltage 2523.021;
	constant_power_A 15254.669;
	constant_power_B 0;
	constant_power_C 0;
	constant_power_A 5013.96723006;
	constant_power_B 0;
	constant_power_C 0;
}

object load {
	name N_800003815;
	phases AB;
	nominal_voltage 2523.021;
	constant_power_A 3774.093;
	constant_power_B 3774.093;
	constant_power_C 0;
	constant_power_A 1240.48438057;
	constant_power_B 1240.48438057;
	constant_power_C 0;
}

object load {
	name N_800033634;
	phases AB;
	nominal_voltage 2523.021;
	constant_power_A 5736.121;
	constant_power_B 5736.121;
	constant_power_C 0;
	constant_power_A 2536.46247952;
	constant_power_B 2536.46247952;
	constant_power_C 0;
}

object load {
	name N_800026137;
	phases B;
	nominal_voltage 2523.021;
	constant_power_A 0;
	constant_power_B 36974.451;
	constant_power_C 0;
	constant_power_A 0;
	constant_power_B 12152.9143414;
	constant_power_C 0;
}

object load {
	name N_800026145;
	phases B;
	nominal_voltage 2523.021;
	constant_power_A 0;
	constant_power_B 25060.646;
	constant_power_C 0;
	constant_power_A 0;
	constant_power_B 8237.03600571;
	constant_power_C 0;
}

object load {
	name N_800003828;
	phases A;
	nominal_voltage 2523.021;
	constant_power_A 27035.172;
	constant_power_B 0;
	constant_power_C 0;
	constant_power_A 8886.03131718;
	constant_power_B 0;
	constant_power_C 0;
}

object load {
	name N_800042659;
	phases ABC;
	nominal_voltage 2523.021;
	constant_power_A 7334.34933333;
	constant_power_B 7334.34933333;
	constant_power_C 7334.34933333;
	constant_power_A 2487.47320777;
	constant_power_B 2487.47320777;
	constant_power_C 2487.47320777;
}

object load {
	name N_800044234;
	phases ABC;
	nominal_voltage 2523.021;
	constant_power_A 7759.247;
	constant_power_B 7759.247;
	constant_power_C 7759.247;
	constant_power_A 2550.34115706;
	constant_power_B 2550.34115706;
	constant_power_C 2550.34115706;
}

object load {
	name N_800018863;
	phases ABC;
	nominal_voltage 2523.021;
	constant_power_A 26000.0;
	constant_power_B 26000.0;
	constant_power_C 26000.0;
	constant_power_A 16113.3527985;
	constant_power_B 16113.3527985;
	constant_power_C 16113.3527985;
}

object load {
	name N_800042675;
	phases ABC;
	nominal_voltage 2523.021;
	constant_power_A 2160.592;
	constant_power_B 2160.592;
	constant_power_C 2160.592;
	constant_power_A 710.152248177;
	constant_power_B 710.152248177;
	constant_power_C 710.152248177;
}

object load {
	name N_800042674;
	phases ABC;
	nominal_voltage 2523.021;
	constant_power_A 12024.889;
	constant_power_B 12024.889;
	constant_power_C 12024.889;
	constant_power_A 3952.38988084;
	constant_power_B 3952.38988084;
	constant_power_C 3952.38988084;
}

object load {
	name N_800042677;
	phases ABC;
	nominal_voltage 2523.021;
	constant_power_A 7703.705;
	constant_power_B 7703.705;
	constant_power_C 7703.705;
	constant_power_A 2532.08538449;
	constant_power_B 2532.08538449;
	constant_power_C 2532.08538449;
}

object load {
	name N_800042676;
	phases ABC;
	nominal_voltage 2523.021;
	constant_power_A 3471.38833333;
	constant_power_B 3471.38833333;
	constant_power_C 3471.38833333;
	constant_power_A 1140.99016807;
	constant_power_B 1140.99016807;
	constant_power_C 1140.99016807;
}

object load {
	name N_800047537;
	phases ABC;
	nominal_voltage 2523.021;
	constant_power_A 6895.56566667;
	constant_power_B 6895.56566667;
	constant_power_C 6895.56566667;
	constant_power_A 2266.46283085;
	constant_power_B 2266.46283085;
	constant_power_C 2266.46283085;
}

object load {
	name N_800042673;
	phases ABC;
	nominal_voltage 2523.021;
	constant_power_A 5165.42566667;
	constant_power_B 5165.42566667;
	constant_power_C 5165.42566667;
	constant_power_A 1761.64950278;
	constant_power_B 1761.64950278;
	constant_power_C 1761.64950278;
}

object load {
	name N_800042672;
	phases ABC;
	nominal_voltage 2523.021;
	constant_power_A 7975.86166667;
	constant_power_B 7975.86166667;
	constant_power_C 7975.86166667;
	constant_power_A 2621.53895494;
	constant_power_B 2621.53895494;
	constant_power_C 2621.53895494;
}

object load {
	name N_800109225;
	phases A;
	nominal_voltage 2523.021;
	constant_power_A 19861.895;
	constant_power_B 0;
	constant_power_C 0;
	constant_power_A 6528.28918523;
	constant_power_B 0;
	constant_power_C 0;
}

object load {
	name N_800010252;
	phases ABC;
	nominal_voltage 2523.021;
	constant_power_A 4865.49766667;
	constant_power_B 4865.49766667;
	constant_power_C 4865.49766667;
	constant_power_A 2004.98153452;
	constant_power_B 2004.98153452;
	constant_power_C 2004.98153452;
}

object load {
	name N_800052747;
	phases ABC;
	nominal_voltage 2523.021;
	constant_power_A 18000.0;
	constant_power_B 18000.0;
	constant_power_C 18000.0;
	constant_power_A 11155.3980913;
	constant_power_B 11155.3980913;
	constant_power_C 11155.3980913;
}

object load {
	name N_800010259;
	phases ABC;
	nominal_voltage 2523.021;
	constant_power_A 3771.31666667;
	constant_power_B 3771.31666667;
	constant_power_C 3771.31666667;
	constant_power_A 1313.12780991;
	constant_power_B 1313.12780991;
	constant_power_C 1313.12780991;
}

object load {
	name N_800003831;
	phases A;
	nominal_voltage 2523.021;
	constant_power_A 13813.348;
	constant_power_B 0;
	constant_power_C 0;
	constant_power_A 4758.47071098;
	constant_power_B 0;
	constant_power_C 0;
}

object load {
	name N_800111512;
	phases ABC;
	nominal_voltage 2523.021;
	constant_power_A 6392.90866667;
	constant_power_B 6392.90866667;
	constant_power_C 6392.90866667;
	constant_power_A 2101.24746459;
	constant_power_B 2101.24746459;
	constant_power_C 2101.24746459;
}

object load {
	name N_800053805;
	phases ABC;
	nominal_voltage 2523.021;
	constant_power_A 5706.96233333;
	constant_power_B 5706.96233333;
	constant_power_C 5706.96233333;
	constant_power_A 1875.78780782;
	constant_power_B 1875.78780782;
	constant_power_C 1875.78780782;
}

object load {
	name N_800003803;
	phases A;
	nominal_voltage 2523.021;
	constant_power_A 8139.711;
	constant_power_B 0;
	constant_power_C 0;
	constant_power_A 2675.39362645;
	constant_power_B +0;
	constant_power_C +0;
}

object load {
	name N_800026555;
	phases ABC;
	nominal_voltage 2523.021;
	constant_power_A 9147.80233333;
	constant_power_B 9147.80233333;
	constant_power_C 9147.80233333;
	constant_power_A 3006.73722428;
	constant_power_B 3006.73722428;
	constant_power_C 3006.73722428;
}

object load {
	name N_800013464;
	phases C;
	nominal_voltage 2523.021;
	constant_power_A 0;
	constant_power_B 0;
	constant_power_C 29634.548;
	constant_power_A 0;
	constant_power_B 0;
	constant_power_C 9740.40489176;
}

object load {
	name N_800003829;
	phases AB;
	nominal_voltage 2523.021;
	constant_power_A 16281.104;
	constant_power_B 16281.104;
	constant_power_C 0.0;
	constant_power_A 9864.60448341;
	constant_power_B 9864.60448341;
	constant_power_C 0.0;
}

object load {
	name N_800010293;
	phases ABC;
	nominal_voltage 2523.021;
	constant_power_A 9575.47733333;
	constant_power_B 9575.47733333;
	constant_power_C 9575.47733333;
	constant_power_A 3147.30719897;
	constant_power_B 3147.30719897;
	constant_power_C 3147.30719897;
}

object load {
	name N_800003808;
	phases A;
	nominal_voltage 2523.021;
	constant_power_A 22552.915;
	constant_power_B 0;
	constant_power_C 0;
	constant_power_A 7412.78468595;
	constant_power_B 0;
	constant_power_C 0;
}

object load {
	name N_800013465;
	phases C;
	nominal_voltage 2523.021;
	constant_power_A 0;
	constant_power_B 0;
	constant_power_C 35274.859;
	constant_power_A 0;
	constant_power_B 0;
	constant_power_C 11594.2854657;
}

object load {
	name N_800003839;
	phases AB;
	nominal_voltage 2523.021;
	constant_power_A 11580.551;
	constant_power_B 11580.551;
	constant_power_C 0;
	constant_power_A 3806.34304291;
	constant_power_B 3806.34304291;
	constant_power_C 0;
}

object load {
	name N_800003821;
	phases AB;
	nominal_voltage 2523.021;
	constant_power_A 14357.167;
	constant_power_B 14357.167;
	constant_power_C 0.0;
	constant_power_A 8251.53192793;
	constant_power_B 8251.53192793;
	constant_power_C 0.0;
}

object load {
	name N_800003820;
	phases AB;
	nominal_voltage 2523.021;
	constant_power_A 12942.723;
	constant_power_B 12942.723;
	constant_power_C 0;
	constant_power_A 8021.17930277;
	constant_power_B 8021.17930277;
	constant_power_C 0;
}

object load {
	name N_800003845;
	phases A;
	nominal_voltage 2523.021;
	constant_power_A 22952.819;
	constant_power_B 0;
	constant_power_C 0;
	constant_power_A 7544.22677435;
	constant_power_B 0;
	constant_power_C 0;
}

object load {
	name N_800041281;
	phases ABC;
	nominal_voltage 2523.021;
	constant_power_A 6017.99866667;
	constant_power_B 6017.99866667;
	constant_power_C 6017.99866667;
	constant_power_A 1978.02050672;
	constant_power_B 1978.02050672;
	constant_power_C 1978.02050672;
}

object load {
	name N_800042661;
	phases AB;
	nominal_voltage 2523.021;
	constant_power_A 16287.754;
	constant_power_B 16287.754;
	constant_power_C 0;
	constant_power_A 5353.52584886;
	constant_power_B 5353.52584886;
	constant_power_C 0;
}

object load {
	name N_800110102;
	phases ABC;
	nominal_voltage 2523.021;
	constant_power_A 0.0;
	constant_power_B 0.0;
	constant_power_C 0.0;
	constant_power_A 0.0;
	constant_power_B 0.0;
	constant_power_C 0.0;
}

object load {
	name N_800045760;
	phases C;
	nominal_voltage 2523.021;
	constant_power_A 0;
	constant_power_B 0;
	constant_power_C 12496.998;
	constant_power_A 0;
	constant_power_B 0;
	constant_power_C 4107.56460505;
}

object load {
	name N_800003842;
	phases ABC;
	nominal_voltage 2523.021;
	constant_power_A 17531.8996667;
	constant_power_B 17531.8996667;
	constant_power_C 17531.8996667;
	constant_power_A 5819.84655551;
	constant_power_B 5819.84655551;
	constant_power_C 5819.84655551;
}

object load {
	name N_800025566;
	phases ABC;
	nominal_voltage 2523.021;
	constant_power_A 4734.97366667;
	constant_power_B 4734.97366667;
	constant_power_C 4734.97366667;
	constant_power_A 1556.31058267;
	constant_power_B 1556.31058267;
	constant_power_C 1556.31058267;
}

object load {
	name N_800042666;
	phases AB;
	nominal_voltage 2523.021;
	constant_power_A 9597.694;
	constant_power_B 9597.694;
	constant_power_C 0;
	constant_power_A 3154.60946417;
	constant_power_B 3154.60946417;
	constant_power_C 0;
}

object load {
	name N_800025891;
	phases ABC;
	nominal_voltage 2523.021;
	constant_power_A 9333.33333333;
...